*SPEF "IEEE 1481-1998"
*DESIGN "tollboothcontroller"
*DATE "Fri Jul 18 12:54:58 2025"
*VENDOR "Cadence Design Systems, Inc."
*PROGRAM "Innovus"
*VERSION "20.14-s095_1"
*DESIGN_FLOW "PIN_CAP NONE" "NAME_SCOPE LOCAL"
*DIVIDER /
*DELIMITER :
*BUS_DELIMITER []
*T_UNIT 1 NS
*C_UNIT 1 PF
*R_UNIT 1 OHM
*L_UNIT 1 HENRY

// MMMC spef file for corner 'RC'

*NAME_MAP

*1 FE_OFN2_n_593
*2 FE_OFN1_n_593
*3 FE_OFN0_n_573
*4 clk
*5 reset
*6 vehicle_detect
*7 rfid_present
*8 rfid_valid
*9 rfid_sufficient
*10 manual_coin
*11 manual_card
*12 vehicle_passgate
*13 maintenance_mode
*14 updaterate
*15 vehicle_class[1]
*16 vehicle_class[0]
*17 rate_input[7]
*18 rate_input[6]
*19 rate_input[5]
*20 rate_input[4]
*21 rate_input[3]
*22 rate_input[2]
*23 rate_input[1]
*24 rate_input[0]
*25 reset_counters
*26 gateopen
*27 gateclose
*28 vehiclecount0[15]
*29 vehiclecount0[14]
*30 vehiclecount0[13]
*31 vehiclecount0[12]
*32 vehiclecount0[11]
*33 vehiclecount0[10]
*34 vehiclecount0[9]
*35 vehiclecount0[8]
*36 vehiclecount0[7]
*37 vehiclecount0[6]
*38 vehiclecount0[5]
*39 vehiclecount0[4]
*40 vehiclecount0[3]
*41 vehiclecount0[2]
*42 vehiclecount0[1]
*43 vehiclecount0[0]
*44 vehiclecount1[15]
*45 vehiclecount1[14]
*46 vehiclecount1[13]
*47 vehiclecount1[12]
*48 vehiclecount1[11]
*49 vehiclecount1[10]
*50 vehiclecount1[9]
*51 vehiclecount1[8]
*52 vehiclecount1[7]
*53 vehiclecount1[6]
*54 vehiclecount1[5]
*55 vehiclecount1[4]
*56 vehiclecount1[3]
*57 vehiclecount1[2]
*58 vehiclecount1[1]
*59 vehiclecount1[0]
*60 vehiclecount2[15]
*61 vehiclecount2[14]
*62 vehiclecount2[13]
*63 vehiclecount2[12]
*64 vehiclecount2[11]
*65 vehiclecount2[10]
*66 vehiclecount2[9]
*67 vehiclecount2[8]
*68 vehiclecount2[7]
*69 vehiclecount2[6]
*70 vehiclecount2[5]
*71 vehiclecount2[4]
*72 vehiclecount2[3]
*73 vehiclecount2[2]
*74 vehiclecount2[1]
*75 vehiclecount2[0]
*76 totalrevenue0[15]
*77 totalrevenue0[14]
*78 totalrevenue0[13]
*79 totalrevenue0[12]
*80 totalrevenue0[11]
*81 totalrevenue0[10]
*82 totalrevenue0[9]
*83 totalrevenue0[8]
*84 totalrevenue0[7]
*85 totalrevenue0[6]
*86 totalrevenue0[5]
*87 totalrevenue0[4]
*88 totalrevenue0[3]
*89 totalrevenue0[2]
*90 totalrevenue0[1]
*91 totalrevenue0[0]
*92 totalrevenue1[15]
*93 totalrevenue1[14]
*94 totalrevenue1[13]
*95 totalrevenue1[12]
*96 totalrevenue1[11]
*97 totalrevenue1[10]
*98 totalrevenue1[9]
*99 totalrevenue1[8]
*100 totalrevenue1[7]
*101 totalrevenue1[6]
*102 totalrevenue1[5]
*103 totalrevenue1[4]
*104 totalrevenue1[3]
*105 totalrevenue1[2]
*106 totalrevenue1[1]
*107 totalrevenue1[0]
*108 totalrevenue2[15]
*109 totalrevenue2[14]
*110 totalrevenue2[13]
*111 totalrevenue2[12]
*112 totalrevenue2[11]
*113 totalrevenue2[10]
*114 totalrevenue2[9]
*115 totalrevenue2[8]
*116 totalrevenue2[7]
*117 totalrevenue2[6]
*118 totalrevenue2[5]
*119 totalrevenue2[4]
*120 totalrevenue2[3]
*121 totalrevenue2[2]
*122 totalrevenue2[1]
*123 totalrevenue2[0]
*124 evasioncount[7]
*125 evasioncount[6]
*126 evasioncount[5]
*127 evasioncount[4]
*128 evasioncount[3]
*129 evasioncount[2]
*130 evasioncount[1]
*131 evasioncount[0]
*132 tollrates2[7]
*133 tollrates2[6]
*134 tollrates2[5]
*135 tollrates2[4]
*136 tollrates2[3]
*137 tollrates2[2]
*138 tollrates2[1]
*139 tollrates2[0]
*140 tollrates1[7]
*141 tollrates1[6]
*142 tollrates1[5]
*143 tollrates1[4]
*144 tollrates1[3]
*145 tollrates1[2]
*146 tollrates1[1]
*147 tollrates1[0]
*148 tollrates0[7]
*149 tollrates0[6]
*150 tollrates0[5]
*151 tollrates0[4]
*152 tollrates0[3]
*153 tollrates0[2]
*154 tollrates0[1]
*155 tollrates0[0]
*156 state[3]
*157 state[2]
*158 state[1]
*159 state[0]
*160 UNCONNECTED
*161 UNCONNECTED0
*162 UNCONNECTED1
*163 n_0
*164 n_2
*165 n_3
*166 n_4
*167 n_6
*168 n_7
*169 n_8
*170 n_9
*171 n_10
*172 n_11
*173 n_12
*174 n_13
*175 n_14
*176 n_15
*177 n_16
*178 n_17
*179 n_18
*180 n_20
*181 n_21
*182 n_22
*183 n_23
*184 n_26
*185 n_27
*186 n_28
*187 n_29
*188 n_30
*189 n_31
*190 n_32
*191 n_33
*192 n_35
*193 n_36
*194 n_37
*195 n_38
*196 n_39
*197 n_40
*198 n_41
*199 n_42
*200 n_43
*201 n_44
*202 n_45
*203 n_46
*204 n_47
*205 n_49
*206 n_50
*207 n_51
*208 n_52
*209 n_53
*210 n_54
*211 n_55
*212 n_56
*213 n_57
*214 n_58
*215 n_59
*216 n_60
*217 n_61
*218 n_62
*219 n_63
*220 n_64
*221 n_65
*222 n_66
*223 n_67
*224 n_68
*225 n_69
*226 n_70
*227 n_71
*228 n_72
*229 n_73
*230 n_74
*231 n_75
*232 n_76
*233 n_77
*234 n_78
*235 n_79
*236 n_80
*237 n_81
*238 n_82
*239 n_83
*240 n_84
*241 n_85
*242 n_86
*243 n_87
*244 n_88
*245 n_89
*246 n_90
*247 n_91
*248 n_92
*249 n_93
*250 n_94
*251 n_95
*252 n_96
*253 n_97
*254 n_98
*255 n_99
*256 n_100
*257 n_101
*258 n_102
*259 n_103
*260 n_104
*261 n_105
*262 n_106
*263 n_107
*264 n_108
*265 n_109
*266 n_110
*267 n_111
*268 n_112
*269 n_113
*270 n_115
*271 n_116
*272 n_117
*273 n_118
*274 n_119
*275 n_120
*276 n_121
*277 n_122
*278 n_123
*279 n_124
*280 n_125
*281 n_126
*282 n_127
*283 n_128
*284 n_129
*285 n_130
*286 n_131
*287 n_132
*288 n_133
*289 n_134
*290 n_135
*291 n_136
*292 n_137
*293 n_138
*294 n_139
*295 n_140
*296 n_141
*297 n_143
*298 n_144
*299 n_146
*300 n_147
*301 n_148
*302 n_149
*303 n_150
*304 n_151
*305 n_152
*306 n_153
*307 n_154
*308 n_155
*309 n_156
*310 n_157
*311 n_158
*312 n_159
*313 n_160
*314 n_161
*315 n_162
*316 n_163
*317 n_164
*318 n_165
*319 n_166
*320 n_167
*321 n_168
*322 n_169
*323 n_170
*324 n_172
*325 n_173
*326 n_174
*327 n_175
*328 n_176
*329 n_177
*330 n_178
*331 n_179
*332 n_180
*333 n_181
*334 n_182
*335 n_184
*336 n_185
*337 n_186
*338 n_187
*339 n_188
*340 n_189
*341 n_190
*342 n_191
*343 n_192
*344 n_193
*345 n_194
*346 n_195
*347 n_196
*348 n_197
*349 n_198
*350 n_199
*351 n_200
*352 n_201
*353 n_202
*354 n_203
*355 n_205
*356 n_206
*357 n_207
*358 n_208
*359 n_209
*360 n_210
*361 n_211
*362 n_212
*363 n_213
*364 n_214
*365 n_215
*366 n_216
*367 n_217
*368 n_218
*369 n_219
*370 n_220
*371 n_221
*372 n_222
*373 n_223
*374 n_224
*375 n_225
*376 n_226
*377 n_227
*378 n_228
*379 n_229
*380 n_230
*381 n_231
*382 n_232
*383 n_233
*384 n_235
*385 n_236
*386 n_238
*387 n_239
*388 n_240
*389 n_241
*390 n_242
*391 n_243
*392 n_244
*393 n_245
*394 n_246
*395 n_247
*396 n_248
*397 n_249
*398 n_250
*399 n_251
*400 n_252
*401 n_253
*402 n_254
*403 n_255
*404 n_256
*405 n_257
*406 n_259
*407 n_260
*408 n_261
*409 n_262
*410 n_263
*411 n_264
*412 n_265
*413 n_266
*414 n_267
*415 n_268
*416 n_269
*417 n_270
*418 n_272
*419 n_273
*420 n_274
*421 n_275
*422 n_277
*423 n_278
*424 n_279
*425 n_280
*426 n_281
*427 n_282
*428 n_283
*429 n_284
*430 n_285
*431 n_286
*432 n_287
*433 n_288
*434 n_289
*435 n_290
*436 n_291
*437 n_292
*438 n_293
*439 n_294
*440 n_295
*441 n_296
*442 n_297
*443 n_298
*444 n_299
*445 n_300
*446 n_301
*447 n_302
*448 n_303
*449 n_304
*450 n_305
*451 n_306
*452 n_307
*453 n_309
*454 n_310
*455 n_311
*456 n_312
*457 n_313
*458 n_314
*459 n_315
*460 n_316
*461 n_317
*462 n_318
*463 n_319
*464 n_320
*465 n_321
*466 n_322
*467 n_323
*468 n_324
*469 n_325
*470 n_326
*471 n_327
*472 n_328
*473 n_329
*474 n_330
*475 n_331
*476 n_332
*477 n_333
*478 n_334
*479 n_335
*480 n_337
*481 n_338
*482 n_340
*483 n_341
*484 n_342
*485 n_343
*486 n_344
*487 n_345
*488 n_346
*489 n_347
*490 n_348
*491 n_349
*492 n_350
*493 n_351
*494 n_352
*495 n_353
*496 n_355
*497 n_356
*498 n_357
*499 n_358
*500 n_359
*501 n_360
*502 n_361
*503 n_362
*504 n_363
*505 n_364
*506 n_366
*507 n_367
*508 n_368
*509 n_369
*510 n_370
*511 n_371
*512 n_372
*513 n_373
*514 n_374
*515 n_375
*516 n_376
*517 n_377
*518 n_378
*519 n_379
*520 n_381
*521 n_382
*522 n_383
*523 n_384
*524 n_385
*525 n_386
*526 n_387
*527 n_388
*528 n_389
*529 n_390
*530 n_391
*531 n_392
*532 n_393
*533 n_394
*534 n_395
*535 n_396
*536 n_397
*537 n_398
*538 n_399
*539 n_400
*540 n_402
*541 n_403
*542 n_404
*543 n_405
*544 n_406
*545 n_407
*546 n_408
*547 n_409
*548 n_410
*549 n_411
*550 n_412
*551 n_413
*552 n_414
*553 n_415
*554 n_416
*555 n_417
*556 n_418
*557 n_419
*558 n_420
*559 n_421
*560 n_422
*561 n_423
*562 n_424
*563 n_425
*564 n_426
*565 n_427
*566 n_428
*567 n_429
*568 n_430
*569 n_431
*570 n_432
*571 n_433
*572 n_434
*573 n_435
*574 n_436
*575 n_437
*576 n_438
*577 n_440
*578 n_441
*579 n_442
*580 n_443
*581 n_444
*582 n_445
*583 n_446
*584 n_447
*585 n_448
*586 n_449
*587 n_450
*588 n_451
*589 n_453
*590 n_454
*591 n_455
*592 n_456
*593 n_457
*594 n_458
*595 n_459
*596 n_460
*597 n_461
*598 n_462
*599 n_463
*600 n_464
*601 n_465
*602 n_466
*603 n_467
*604 n_469
*605 n_470
*606 n_471
*607 n_472
*608 n_473
*609 n_474
*610 n_475
*611 n_476
*612 n_477
*613 n_478
*614 n_479
*615 n_480
*616 n_481
*617 n_482
*618 n_483
*619 n_484
*620 n_485
*621 n_486
*622 n_487
*623 n_488
*624 n_489
*625 n_490
*626 n_491
*627 n_492
*628 n_493
*629 n_494
*630 n_495
*631 n_496
*632 n_497
*633 n_498
*634 n_499
*635 n_500
*636 n_501
*637 n_502
*638 n_504
*639 n_505
*640 n_506
*641 n_507
*642 n_508
*643 n_509
*644 n_510
*645 n_511
*646 n_512
*647 n_513
*648 n_514
*649 n_515
*650 n_516
*651 n_517
*652 n_518
*653 n_519
*654 n_520
*655 n_521
*656 n_522
*657 n_523
*658 n_524
*659 n_525
*660 n_526
*661 n_527
*662 n_528
*663 n_529
*664 n_530
*665 n_531
*666 n_532
*667 n_533
*668 n_534
*669 n_535
*670 n_536
*671 n_537
*672 n_538
*673 n_539
*674 n_540
*675 n_541
*676 n_542
*677 n_543
*678 n_544
*679 n_545
*680 n_546
*681 n_547
*682 n_548
*683 n_549
*684 n_550
*685 n_551
*686 n_552
*687 n_553
*688 n_554
*689 n_555
*690 n_556
*691 n_557
*692 n_558
*693 n_559
*694 n_560
*695 n_561
*696 n_562
*697 n_563
*698 n_564
*699 n_565
*700 n_566
*701 n_567
*702 n_568
*703 n_569
*704 n_570
*705 n_571
*706 n_572
*707 n_573
*708 n_574
*709 n_575
*710 n_576
*711 n_577
*712 n_578
*713 n_579
*714 n_580
*715 n_581
*716 n_582
*717 n_583
*718 n_584
*719 n_585
*720 n_586
*721 n_587
*722 n_588
*723 n_589
*724 n_590
*725 n_591
*726 n_592
*727 n_593
*728 n_616
*729 n_617
*730 n_618
*731 n_619
*732 n_620
*733 n_621
*734 n_622
*735 n_623
*736 n_624
*737 n_625
*738 n_626
*739 n_627
*740 n_628
*741 FE_OFC2_n_593
*742 FE_OFC1_n_593
*743 FE_OFC0_n_573
*744 g18349
*745 g18350
*746 g18370
*747 g18373
*748 g18372
*749 g18371
*750 g18351
*751 g18352
*752 g18364
*753 g18380
*754 g18363
*755 g18381
*756 g18362
*757 g18365
*758 g18375
*759 g18369
*760 g18374
*761 g18360
*762 g18377
*763 g18376
*764 g18361
*765 g18398
*766 g18397
*767 g18393
*768 g18400
*769 g18416
*770 g18417
*771 g18378
*772 g18379
*773 g18406
*774 g18431
*775 g18419
*776 g18404
*777 g18394
*778 g18383
*779 g18384
*780 g18385
*781 g18382
*782 g18395
*783 g18396
*784 g18399
*785 g18402
*786 g18403
*787 g18401
*788 g18409
*789 g18407
*790 g18440
*791 g18439
*792 g18405
*793 g18386
*794 g18418
*795 g18415
*796 g18420
*797 g18411
*798 g18430
*799 g18456
*800 g18450
*801 g18449
*802 g18459
*803 g18436
*804 g18408
*805 g18414
*806 g18413
*807 g18460
*808 totalrevenue0_reg\[6\]
*809 totalrevenue1_reg\[6\]
*810 g18421
*811 g18429
*812 g18422
*813 g18438
*814 g18455
*815 g18448
*816 g18453
*817 g18442
*818 g18434
*819 g18468
*820 g18467
*821 g18466
*822 g18465
*823 g18428
*824 g18471
*825 g18454
*826 g18451
*827 g18437
*828 g18457
*829 g18472
*830 g18473
*831 g18474
*832 g18452
*833 g18441
*834 g18458
*835 g18485
*836 g18492
*837 g18489
*838 g18503
*839 g18502
*840 g18501
*841 g18517
*842 g18498
*843 g18505
*844 g18500
*845 g18484
*846 g18486
*847 g18488
*848 g18490
*849 g18494
*850 g18513
*851 g18510
*852 g18511
*853 g18512
*854 g18509
*855 g18514
*856 g18515
*857 g18516
*858 g18487
*859 g18491
*860 g18493
*861 g18537
*862 g18495
*863 g18521
*864 g18499
*865 g18523
*866 g18504
*867 g18497
*868 g18530
*869 g18584
*870 g18583
*871 g18536
*872 g18518
*873 g18569
*874 g18529
*875 g18528
*876 g18567
*877 g18564
*878 g18565
*879 g18566
*880 g18570
*881 g18571
*882 g18574
*883 g18572
*884 g18573
*885 g18598
*886 g18524
*887 g18597
*888 g18531
*889 g18612
*890 g18591
*891 g18589
*892 g18588
*893 g18560
*894 g18562
*895 g18563
*896 g18568
*897 g18616
*898 g18585
*899 g18586
*900 g18587
*901 g18538
*902 g18535
*903 g18625
*904 g18520
*905 g18519
*906 g18618
*907 g18615
*908 g18620
*909 g18621
*910 g18623
*911 g18624
*912 g18613
*913 g18626
*914 g18627
*915 g18614
*916 g18596
*917 g18579
*918 g18603
*919 g18599
*920 g18622
*921 g18617
*922 g18641
*923 g18642
*924 g18561
*925 g18592
*926 g18593
*927 g18594
*928 g18595
*929 g18611
*930 g18619
*931 g18645
*932 g18632
*933 g18648
*934 g18649
*935 g18653
*936 g18590
*937 g18652
*938 g18650
*939 g18634
*940 g18629
*941 g18636
*942 g18637
*943 g18647
*944 g18633
*945 g18678
*946 g18655
*947 g18657
*948 g18658
*949 g18660
*950 g18661
*951 g18662
*952 g18663
*953 g18669
*954 g18671
*955 g18673
*956 g18674
*957 g18675
*958 g18676
*959 g18677
*960 g18654
*961 g18635
*962 g18644
*963 g18646
*964 g18638
*965 g18631
*966 g18672
*967 g18670
*968 g18687
*969 g18684
*970 g18664
*971 g18681
*972 g18656
*973 g18659
*974 g18643
*975 g18679
*976 g18680
*977 g18665
*978 g18699
*979 g18683
*980 g18698
*981 g18693
*982 g18688
*983 g18700
*984 g18691
*985 g18690
*986 g18682
*987 g18685
*988 g18686
*989 g18710
*990 g18694
*991 g18696
*992 g18697
*993 g18689
*994 g18703
*995 g18706
*996 g18705
*997 g18692
*998 g18666
*999 g18695
*1000 g18734
*1001 g18704
*1002 g18718
*1003 g18739
*1004 g18701
*1005 g18761
*1006 tollrates2_reg\[7\]
*1007 tollrates2_reg\[1\]
*1008 tollrates2_reg\[4\]
*1009 tollrates2_reg\[2\]
*1010 tollrates2_reg\[6\]
*1011 g18735
*1012 g18708
*1013 g18702
*1014 g18738
*1015 g18737
*1016 g18740
*1017 g18709
*1018 g18716
*1019 g18715
*1020 g18711
*1021 g18712
*1022 g18713
*1023 g18772
*1024 g18714
*1025 g18765
*1026 g18762
*1027 g18763
*1028 g18764
*1029 g18746
*1030 g18747
*1031 g18767
*1032 g18744
*1033 g18736
*1034 g18717
*1035 g18733
*1036 g18732
*1037 g18731
*1038 tollrates1_reg\[2\]
*1039 tollrates1_reg\[6\]
*1040 tollrates1_reg\[5\]
*1041 tollrates1_reg\[3\]
*1042 tollrates1_reg\[1\]
*1043 g18778
*1044 g18760
*1045 g18777
*1046 g18769
*1047 g18768
*1048 g18745
*1049 g18770
*1050 g18779
*1051 tollrates0_reg\[5\]
*1052 tollrates0_reg\[1\]
*1053 tollrates0_reg\[6\]
*1054 tollrates0_reg\[2\]
*1055 tollrates0_reg\[4\]
*1056 g18782
*1057 g18774
*1058 g18787
*1059 g18780
*1060 g18786
*1061 g18785
*1062 g18766
*1063 g18776
*1064 g18800
*1065 g18810
*1066 g18789
*1067 g18802
*1068 g18792
*1069 g18795
*1070 g18790
*1071 g18783
*1072 g18784
*1073 g18788
*1074 g18806
*1075 g18805
*1076 g18804
*1077 g18801
*1078 g18794
*1079 g18796
*1080 g18797
*1081 g18793
*1082 g18791
*1083 g18807
*1084 g18808
*1085 g18809
*1086 g18812
*1087 g18836
*1088 g18826
*1089 g18823
*1090 g18821
*1091 g18820
*1092 g18818
*1093 g18813
*1094 g18781
*1095 g18771
*1096 g18822
*1097 g18819
*1098 g18816
*1099 g18817
*1100 g18814
*1101 g18775
*1102 g18824
*1103 g18799
*1104 g18838
*1105 g18840
*1106 g18837
*1107 g18825
*1108 g18828
*1109 g18844
*1110 g18829
*1111 g18832
*1112 g18834
*1113 g18842
*1114 g18811
*1115 g18851
*1116 g18850
*1117 g18827
*1118 g18843
*1119 g18830
*1120 g18831
*1121 g18846
*1122 g18845
*1123 g18847
*1124 g18888
*1125 g18853
*1126 g18860
*1127 g18862
*1128 g18852
*1129 g18890
*1130 g18891
*1131 g18841
*1132 g18854
*1133 g18896
*1134 g18857
*1135 g18855
*1136 g18856
*1137 g18870
*1138 g18859
*1139 g18868
*1140 g18861
*1141 g18871
*1142 g18872
*1143 g18874
*1144 g18895
*1145 g18893
*1146 g18882
*1147 g18921
*1148 g18885
*1149 g18886
*1150 g18897
*1151 g18898
*1152 g18900
*1153 g18902
*1154 g18889
*1155 g18848
*1156 g18849
*1157 g18858
*1158 g18894
*1159 g18905
*1160 g18908
*1161 g18892
*1162 g18909
*1163 g18914
*1164 g18912
*1165 g18916
*1166 g18918
*1167 g18887
*1168 g18865
*1169 g18901
*1170 g18877
*1171 g18869
*1172 g18881
*1173 g18875
*1174 g18906
*1175 g18883
*1176 g18920
*1177 g18915
*1178 g18878
*1179 g18876
*1180 g18919
*1181 g18879
*1182 g18903
*1183 g18899
*1184 g18864
*1185 g18884
*1186 g18866
*1187 g18867
*1188 g18917
*1189 g18904
*1190 g18922
*1191 g18907
*1192 g18911
*1193 g18910
*1194 g18913
*1195 g18873
*1196 g18880
*1197 g18923
*1198 g18993
*1199 g18994
*1200 g18932
*1201 g18992
*1202 g18991
*1203 g18924
*1204 g18926
*1205 g19060
*1206 g2
*1207 g19193
*1208 g19194
*1209 g19195
*1210 g19196
*1211 g19197
*1212 g19198
*1213 g19199
*1214 g19200
*1215 g19201
*1216 vehiclecount1_reg\[9\]
*1217 vehiclecount1_reg\[10\]
*1218 totalrevenue2_reg\[0\]
*1219 totalrevenue2_reg\[6\]
*1220 vehiclecount0_reg\[15\]
*1221 vehiclecount1_reg\[15\]
*1222 vehiclecount0_reg\[11\]
*1223 totalrevenue1_reg\[15\]
*1224 vehiclecount0_reg\[9\]
*1225 vehiclecount0_reg\[4\]
*1226 vehiclecount2_reg\[1\]
*1227 vehiclecount1_reg\[2\]
*1228 vehiclecount2_reg\[2\]
*1229 totalrevenue0_reg\[4\]
*1230 totalrevenue1_reg\[1\]
*1231 totalrevenue1_reg\[3\]
*1232 totalrevenue0_reg\[11\]
*1233 totalrevenue1_reg\[14\]
*1234 vehiclecount2_reg\[15\]
*1235 totalrevenue2_reg\[15\]
*1236 totalrevenue2_reg\[2\]
*1237 vehiclecount0_reg\[5\]
*1238 totalrevenue1_reg\[10\]
*1239 vehiclecount0_reg\[3\]
*1240 vehiclecount2_reg\[3\]
*1241 totalrevenue0_reg\[10\]
*1242 totalrevenue0_reg\[0\]
*1243 totalrevenue2_reg\[11\]
*1244 totalrevenue0_reg\[8\]
*1245 totalrevenue0_reg\[1\]
*1246 totalrevenue1_reg\[8\]
*1247 vehiclecount1_reg\[11\]
*1248 tollrates2_reg\[3\]
*1249 totalrevenue2_reg\[12\]
*1250 vehiclecount2_reg\[7\]
*1251 tollrates1_reg\[0\]
*1252 tollrates2_reg\[0\]
*1253 vehiclecount1_reg\[8\]
*1254 vehiclecount1_reg\[5\]
*1255 tollrates0_reg\[3\]
*1256 vehiclecount2_reg\[13\]
*1257 totalrevenue2_reg\[1\]
*1258 evasioncount_reg\[6\]
*1259 vehiclecount0_reg\[10\]
*1260 tollrates2_reg\[5\]
*1261 vehiclecount0_reg\[13\]
*1262 totalrevenue2_reg\[8\]
*1263 totalrevenue2_reg\[4\]
*1264 totalrevenue1_reg\[5\]
*1265 totalrevenue2_reg\[14\]
*1266 totalrevenue0_reg\[12\]
*1267 tollrates1_reg\[7\]
*1268 vehiclecount2_reg\[0\]
*1269 vehiclecount0_reg\[0\]
*1270 totalrevenue1_reg\[2\]
*1271 totalrevenue0_reg\[5\]
*1272 evasioncount_reg\[5\]
*1273 vehiclecount1_reg\[0\]
*1274 vehiclecount1_reg\[6\]
*1275 state_reg\[3\]
*1276 evasioncount_reg\[3\]
*1277 vehiclecount2_reg\[6\]
*1278 totalrevenue2_reg\[10\]
*1279 vehiclecount0_reg\[14\]
*1280 vehiclecount2_reg\[14\]
*1281 totalrevenue0_reg\[2\]
*1282 totalrevenue0_reg\[9\]
*1283 vehiclecount0_reg\[2\]
*1284 vehiclecount0_reg\[1\]
*1285 totalrevenue1_reg\[11\]
*1286 vehiclecount1_reg\[12\]
*1287 totalrevenue1_reg\[0\]
*1288 totalrevenue1_reg\[9\]
*1289 vehiclecount0_reg\[6\]
*1290 vehiclecount2_reg\[5\]
*1291 totalrevenue1_reg\[12\]
*1292 vehiclecount1_reg\[14\]
*1293 totalrevenue1_reg\[13\]
*1294 totalrevenue0_reg\[15\]
*1295 vehiclecount2_reg\[11\]
*1296 vehiclecount2_reg\[9\]
*1297 totalrevenue2_reg\[9\]
*1298 vehiclecount2_reg\[4\]
*1299 vehiclecount2_reg\[10\]
*1300 totalrevenue2_reg\[7\]
*1301 vehiclecount0_reg\[12\]
*1302 vehiclecount0_reg\[8\]
*1303 vehiclecount2_reg\[8\]
*1304 state_reg\[2\]
*1305 totalrevenue2_reg\[5\]
*1306 vehiclecount0_reg\[7\]
*1307 totalrevenue1_reg\[7\]
*1308 totalrevenue0_reg\[14\]
*1309 tollrates0_reg\[7\]
*1310 vehiclecount2_reg\[12\]
*1311 vehiclecount1_reg\[7\]
*1312 evasioncount_reg\[7\]
*1313 vehiclecount1_reg\[1\]
*1314 totalrevenue0_reg\[7\]
*1315 tollrates0_reg\[0\]
*1316 vehiclecount1_reg\[3\]
*1317 vehiclecount1_reg\[13\]
*1318 totalrevenue1_reg\[4\]
*1319 evasioncount_reg\[0\]
*1320 totalrevenue0_reg\[13\]
*1321 totalrevenue0_reg\[3\]
*1322 evasioncount_reg\[1\]
*1323 state_reg\[0\]
*1324 tollrates1_reg\[4\]
*1325 totalrevenue2_reg\[13\]
*1326 totalrevenue2_reg\[3\]
*1327 evasioncount_reg\[4\]
*1328 evasioncount_reg\[2\]
*1329 vehiclecount1_reg\[4\]
*1330 state_reg\[1\]
*1331 g19432
*1332 g19433
*1333 g19434


*PORTS

*4 I *C 95.37 188.16
*5 I *C 191.4 51.8
*6 I *C 0 46.2
*7 I *C 0 26.04
*8 I *C 0 31.08
*9 I *C 0 31.08
*10 I *C 0 56.28
*11 I *C 0 66.36
*12 I *C 0 38.36
*13 I *C 0 45.64
*14 I *C 0 105
*15 I *C 0 107.24
*16 I *C 0 93.8
*17 I *C 88.77 188.16
*18 I *C 72.27 188.16
*19 I *C 69.63 188.16
*20 I *C 0 112.84
*21 I *C 0 91.56
*22 I *C 0 99.96
*23 I *C 0 105
*24 I *C 0 103.32
*25 I *C 75.24 0
*26 O *C 0 41.72
*27 O *C 0 47.32
*28 O *C 191.4 57.96
*29 O *C 191.4 66.92
*30 O *C 191.4 67.48
*31 O *C 191.4 82.04
*32 O *C 191.4 68.04
*33 O *C 191.4 54.04
*34 O *C 191.4 59.64
*35 O *C 191.4 62.44
*36 O *C 191.4 75.88
*37 O *C 191.4 88.76
*38 O *C 191.4 94.36
*39 O *C 191.4 102.2
*40 O *C 191.4 110.04
*41 O *C 125.73 188.16
*42 O *C 115.83 188.16
*43 O *C 121.11 188.16
*44 O *C 191.4 39.48
*45 O *C 191.4 31.64
*46 O *C 191.4 28.28
*47 O *C 191.4 39.48
*48 O *C 158.07 0
*49 O *C 158.73 0
*50 O *C 141.57 0
*51 O *C 137.61 0
*52 O *C 138.93 0
*53 O *C 100.65 0
*54 O *C 129.03 0
*55 O *C 191.4 52.36
*56 O *C 107.91 0
*57 O *C 115.17 0
*58 O *C 109.23 0
*59 O *C 191.4 72.52
*60 O *C 191.4 109.48
*61 O *C 191.4 101.64
*62 O *C 191.4 98.84
*63 O *C 191.4 94.92
*64 O *C 191.4 108.36
*65 O *C 191.4 113.4
*66 O *C 191.4 126.84
*67 O *C 191.4 126.28
*68 O *C 191.4 143.64
*69 O *C 133.65 188.16
*70 O *C 135.63 188.16
*71 O *C 136.29 188.16
*72 O *C 120.78 188.16
*73 O *C 107.25 188.16
*74 O *C 105.27 188.16
*75 O *C 105.93 188.16
*76 O *C 39.27 188.16
*77 O *C 46.53 188.16
*78 O *C 33.99 188.16
*79 O *C 0 154.84
*80 O *C 0 163.8
*81 O *C 26.73 188.16
*82 O *C 0 138.6
*83 O *C 0 139.72
*84 O *C 0 131.88
*85 O *C 0 127.4
*86 O *C 0 121.24
*87 O *C 0 109.48
*88 O *C 0 99.96
*89 O *C 0 87.08
*90 O *C 0 74.76
*91 O *C 0 69.72
*92 O *C 116.49 0
*93 O *C 117.15 0
*94 O *C 101.97 0
*95 O *C 102.63 0
*96 O *C 84.81 0
*97 O *C 81.51 0
*98 O *C 75.57 0
*99 O *C 74.91 0
*100 O *C 107.25 0
*101 O *C 191.4 99.4
*102 O *C 0 94.92
*103 O *C 0 80.92
*104 O *C 90.09 0
*105 O *C 68.31 0
*106 O *C 58.41 0
*107 O *C 0 66.92
*108 O *C 191.4 124.6
*109 O *C 191.4 134.68
*110 O *C 191.4 141.4
*111 O *C 191.4 154.84
*112 O *C 191.4 163.8
*113 O *C 191.4 168.84
*114 O *C 150.81 188.16
*115 O *C 148.17 188.16
*116 O *C 121.11 188.16
*117 O *C 103.29 188.16
*118 O *C 92.07 188.16
*119 O *C 70.95 188.16
*120 O *C 95.37 188.16
*121 O *C 86.13 188.16
*122 O *C 62.37 188.16
*123 O *C 61.71 188.16
*124 O *C 57.75 0
*125 O *C 66.33 0
*126 O *C 31.35 0
*127 O *C 51.81 0
*128 O *C 35.31 0
*129 O *C 0 22.12
*130 O *C 28.71 0
*131 O *C 32.01 0


*D_NET *1 0.0819627

*CONN
*I *1218:RN I *C 65.67 171.64 *L 0.00148 *D DFFRX1
*I *1257:RN I *C 65.67 161.56 *L 0.00148 *D DFFRX1
*I *1236:RN I *C 70.95 177.8 *L 0.00148 *D DFFRX1
*I *1219:RN I *C 87.45 177.8 *L 0.00148 *D DFFRX1
*I *1305:RN I *C 82.17 171.64 *L 0.00148 *D DFFRX1
*I *1260:RN I *C 82.17 157.08 *L 0.00146 *D SDFFRX1
*I *1010:RN I *C 96.69 151.48 *L 0.00149 *D SDFFRHQX1
*I *1006:SN I *C 94.71 140.28 *L 0.0014 *D SDFFSX1
*I *1263:RN I *C 77.55 147.56 *L 0.00148 *D DFFRX1
*I *1300:RN I *C 119.13 141.4 *L 0.00148 *D DFFRX1
*I *1269:RN I *C 109.89 131.88 *L 0.00146 *D SDFFRX1
*I *1252:RN I *C 61.71 147 *L 0.00146 *D SDFFRX1
*I *1007:SN I *C 58.41 140.28 *L 0.0014 *D SDFFSX1
*I *1284:RN I *C 109.23 127.4 *L 0.00148 *D DFFRX1
*I *1314:RN I *C 65.67 131.32 *L 0.00148 *D DFFRX1
*I *1309:RN I *C 66.33 126.84 *L 0.00146 *D SDFFRX1
*I *1053:RN I *C 61.05 121.24 *L 0.00149 *D SDFFRHQX1
*I *1051:SN I *C 41.25 120.12 *L 0.0014 *D SDFFSX1
*I *1055:SN I *C 41.25 118.44 *L 0.0014 *D SDFFSX1
*I *1008:SN I *C 73.59 110.04 *L 0.0014 *D SDFFSX1
*I *1326:RN I *C 84.15 121.24 *L 0.00148 *D DFFRX1
*I *1248:RN I *C 70.95 106.68 *L 0.00146 *D SDFFRX1
*I *808:RN I *C 15.51 127.4 *L 0.00153 *D DFFRHQX1
*I *1271:RN I *C 24.75 121.24 *L 0.00148 *D DFFRX1
*I *1009:SN I *C 90.75 110.04 *L 0.0014 *D SDFFSX1
*I *1282:RN I *C 24.75 131.32 *L 0.00148 *D DFFRX1
*I *1229:RN I *C 18.81 107.24 *L 0.00148 *D DFFRX1
*I *1244:RN I *C 26.07 141.96 *L 0.00146 *D SDFFRX1
*I *1039:SN I *C 94.71 108.36 *L 0.0014 *D SDFFSX1
*I *1040:SN I *C 76.89 99.96 *L 0.0014 *D SDFFSX1
*I *1232:RN I *C 25.41 161.56 *L 0.00148 *D DFFRX1
*I *1266:RN I *C 24.75 151.48 *L 0.00148 *D DFFRX1
*I *1324:RN I *C 61.71 101.64 *L 0.00146 *D SDFFRX1
*I *1321:RN I *C 18.15 101.08 *L 0.00148 *D DFFRX1
*I *1308:RN I *C 42.57 171.64 *L 0.00148 *D DFFRX1
*I *1320:RN I *C 44.55 162.12 *L 0.00146 *D SDFFRX1
*I *1267:RN I *C 86.79 96.6 *L 0.00146 *D SDFFRX1
*I *1264:RN I *C 82.83 87.08 *L 0.00148 *D DFFRX1
*I *1294:RN I *C 42.57 177.8 *L 0.00148 *D DFFRX1
*I *1318:RN I *C 65.67 87.08 *L 0.00148 *D DFFRX1
*I *1241:RN I *C 18.81 177.8 *L 0.00148 *D DFFRX1
*I *1041:RN I *C 86.13 77 *L 0.00149 *D SDFFRHQX1
*I *1307:RN I *C 113.85 80.92 *L 0.00148 *D DFFRX1
*I *1273:RN I *C 111.87 71.4 *L 0.00146 *D SDFFRX1
*I *741:Y O *C 125.07 71.96 *L 0 *D BUFX2
*I *809:RN I *C 117.15 91 *L 0.00153 *D DFFRHQX1
*I *1306:RN I *C 130.35 77 *L 0.00148 *D DFFRX1
*I *1237:RN I *C 131.67 101.08 *L 0.00148 *D DFFRX1
*I *1289:RN I *C 129.69 87.08 *L 0.00148 *D DFFRX1
*I *1225:RN I *C 132.33 107.24 *L 0.00148 *D DFFRX1

*CAP
1 *1:1 6.8621e-05
2 *1:2 0.000617589
3 *1:3 0.00035681
4 *1:4 0.000548968
5 *1:5 0.00035681
6 *1:7 0.000446036
7 *1:8 0.000446036
8 *1:9 0.000758222
9 *1:11 0.000758222
10 *1:12 0.000377415
11 *1:13 0.00035681
12 *1:14 0.00126949
13 *1219:RN 0.00035681
14 *1:17 0.00123518
15 *1:19 0.000343105
16 *1:20 0.000133804
17 *1:21 0.000981228
18 *1:22 0.000847424
19 *1:23 0.000206501
20 *1:24 0.000619619
21 *1:25 0.000206501
22 *1:27 0.000688472
23 *1:28 0.000494199
24 *1:29 0.000901356
25 *1:30 6.8853e-05
26 *1:31 0.00163086
27 *1:32 0.000901356
28 *1:33 0.00014826
29 *1:34 3.44265e-05
30 *1:35 0.00113666
31 *1:36 0.000581936
32 *1006:SN 0.00014826
33 *1:38 3.44265e-05
34 *1:39 6.8853e-05
35 *1:40 0.0006034
36 *1:41 0.000821557
37 *1:43 0.000481971
38 *1300:RN 0.0006034
39 *1:46 0.000239621
40 *1:47 4.94199e-05
41 *1:48 0.000413118
42 *1:49 4.31e-05
43 *1252:RN 4.94199e-05
44 *1:51 4.94199e-05
45 *1:52 4.31e-05
46 *1:53 0.000296519
47 *1:54 3.42315e-05
48 *1:55 0.000550824
49 *1007:SN 0.000247099
50 *1:57 3.42315e-05
51 *1:58 0.000550824
52 *1:60 0.000296519
53 *1:61 0.000395359
54 *1:62 9.88397e-05
55 *1:64 0.000275412
56 *1:66 0.000619677
57 *1:67 4.94199e-05
58 *1:68 0.000413118
59 *1309:RN 4.94199e-05
60 *1:70 0.000444779
61 *1:71 6.8853e-05
62 *1:72 0.00185674
63 *1:73 0.000197679
64 *1:75 0.00141197
65 *1:76 0.000197679
66 *1:78 0.000146496
67 *1:79 0.00058525
68 *1:80 7.32481e-05
69 *1:81 0.00018312
70 *1:82 0.00058525
71 *1:83 0.00101948
72 *1:85 0.000109872
73 *1:86 0.00014826
74 *1:87 0.00101948
75 *1:89 0.000988397
76 *1:90 0.000366241
77 *1:91 0.000840138
78 *1:92 3.44265e-05
79 *1:93 0.000329617
80 *1:94 3.66241e-05
81 *1:95 0.00068853
82 *1:96 0.000240986
83 *1:97 4.43253e-05
84 *1:98 8.86505e-05
85 *1:99 0.000654103
86 *1:100 3.44265e-05
87 *1:101 0.00014826
88 *1:102 0.000481971
89 *1:103 0.000709204
90 *1:104 0.000487578
91 *1:105 9.88397e-05
92 *1:106 0.000593038
93 *1008:SN 0.00014826
94 *1:108 4.94199e-05
95 *1:109 0.000344265
96 *1:110 0.000256368
97 *1:111 0.000664879
98 *1:112 3.66241e-05
99 *1:113 0.000398927
100 *1326:RN 9.88397e-05
101 *1:115 0.000889558
102 *1248:RN 4.94199e-05
103 *1:117 0.000395359
104 *1:118 6.8853e-05
105 *1:119 0.000952225
106 *1:121 3.66241e-05
107 *1:122 0.000952226
108 *1:123 0.000296519
109 *1:125 0.000395359
110 *1:126 0.000741298
111 *1:127 0.00131762
112 *1:128 4.43253e-05
113 *1:131 0.000952226
114 *1:132 0.00010328
115 *1:134 0.0001375
116 *1:135 0.000741298
117 *1:136 0.00125059
118 *1:137 4.43253e-05
119 *1282:RN 4.43253e-05
120 *1:139 4.43253e-05
121 *1:141 0.00010328
122 *1:142 0.000206077
123 *1:143 3.44265e-05
124 *1:144 0.000663756
125 *1:145 3.82419e-05
126 *1244:RN 4.43253e-05
127 *1:147 4.43253e-05
128 *1:150 6.85777e-05
129 *1:151 3.44265e-05
130 *1:152 3.49345e-05
131 *1266:RN 3.82419e-05
132 *1:155 0.000402865
133 *1:156 0.00042203
134 *1:158 0.000994291
135 *1:159 0.000402865
136 *1:160 0.00042203
137 *1:161 0.000994291
138 *1:163 0.000137155
139 *1:164 0.000593887
140 *1:165 0.000720066
141 *1:166 0.000978167
142 *1:167 0.000114726
143 *1:168 0.000281353
144 *1:169 0.00058291
145 *1:170 0.00038428
146 *1320:RN 0.000114726
147 *1267:RN 0.000281353
148 *1:174 0.00126609
149 *1:177 0.00137671
150 *1:178 4.68922e-05
151 *1:179 0.0012192
152 *1:180 0.00137671
153 *1:181 0.000617199
154 *1:184 0.000617199
155 *1:187 0.000187569
156 *1:188 0.00196482
157 *1:189 0.00190871
158 *1:191 0.000131457
159 *1:192 0.000308342
160 *1:194 0.000239821
161 *1:195 0.000342602
162 *1:196 0.000856505
163 *1:197 0.000876379
164 *1:198 3.42602e-05
165 *1:199 0.000616683
166 *1:201 0.000964017
167 *1:203 0.000219095
168 *1:204 8.76379e-05
169 *1:206 0.000219095
170 *1:207 0.000274082
171 *1:210 0.000274082
172 *1:212 0.000350552
173 *1:213 0.000350552
174 *1:214 3.42602e-05
175 *1:215 0.000650944
176 *1:216 0.00147317
177 *1:217 8.76379e-05
178 *1:218 0.00123304
179 *1:219 0.000131457
180 *1306:RN 8.76379e-05
181 *1:221 0.000376547
182 *1289:RN 0.000131457
183 *1:224 4.31e-05
184 *1225:RN 4.31e-05

*RES
1 *1:224 *1225:RN 0.183853
2 *1:221 *1:224 6.4
3 *1:219 *1289:RN 0.551558
4 *1:218 *1237:RN 6.4
5 *1:218 *1:221 0.908002
6 *1:217 *1306:RN 0.367705
7 *1:216 *1:219 6.4
8 *1:216 *1:218 2.06364
9 *1:215 *1:217 6.4
10 *1:215 *1:216 1.48582
11 *1:214 *1:215 0.0825457
12 *1:213 *1:214 6.4
13 *1:212 *1:213 1.47082
14 *1:210 *1:212 6.4
15 *1:209 *809:RN 6.4
16 *1:207 *1:210 0.660365
17 *1:206 *1:209 6.4
18 *1:205 *741:Y 6.4
19 *1:204 *1:207 6.4
20 *1:203 *1:206 0.919263
21 *1:201 *1:205 6.4
22 *1:201 *1:204 0.367705
23 *1:199 *1:203 6.4
24 *1:198 *1273:RN 6.4
25 *1:197 *1:201 3.67705
26 *1:196 *1307:RN 6.4
27 *1:196 *1:199 1.48582
28 *1:195 *1:198 0.0825457
29 *1:195 *1:197 6.4
30 *1:194 *1:196 0.57782
31 *1:192 *1:195 0.742911
32 *1:191 *1:194 6.4
33 *1:190 *1041:RN 6.4
34 *1:189 *1:192 6.4
35 *1:189 *1:191 0.551558
36 *1:188 *1:190 6.4
37 *1:188 *1:189 7.17043
38 *1:187 *1:188 0.735442
39 *1:184 *1:187 6.4
40 *1:183 *1241:RN 6.4
41 *1:182 *1318:RN 6.4
42 *1:181 *1:184 1.48582
43 *1:180 *1:183 6.4
44 *1:179 *1:182 6.4
45 *1:178 *1:181 6.4
46 *1:177 *1:180 6.6187
47 *1:174 *1:179 4.78037
48 *1:174 *1:178 0.18386
49 *1:170 *1:177 6.4
50 *1:170 *1294:RN 6.4
51 *1:169 *1264:RN 6.4
52 *1:169 *1:174 6.4
53 *1:168 *1267:RN 1.10316
54 *1:167 *1320:RN 0.551558
55 *1:166 *1308:RN 6.4
56 *1:166 *1:170 0.834123
57 *1:165 *1:169 1.40328
58 *1:165 *1:168 6.4
59 *1:164 *1:167 6.4
60 *1:164 *1:166 1.2891
61 *1:163 *1:165 0.330183
62 *1:161 *1:164 6.4
63 *1:160 *1:163 6.4